!!>>>>>>>>>>>>>>>>>>>>>>>>>>>>>>>>>>>>>>>>>>>>>>>>>>>>>>>>>>>>>>>>>>>>>>
!! NEMO/LIM-3 : Ice configuration namelist. Overwrites SHARED/namelist_ice_lim3_ref
!>>>>>>>>>>>>>>>>>>>>>>>>>>>>>>>>>>>>>>>>>>>>>>>>>>>>>>>>>>>>>>>>>>>>>>>

!-----------------------------------------------------------------------
&namicerun     !   Share parameters for dynamics/advection/thermo
!-----------------------------------------------------------------------
   ln_limdiahsb  = .false.         !  check the heat and salt budgets (T) or not (F)
   ln_limdiaout  = .false.          !  output the heat and salt budgets (T) or not (F)
/
!-----------------------------------------------------------------------
&namiceini     !   ice initialisation
!-----------------------------------------------------------------------
/
!-----------------------------------------------------------------------
&namicedyn     !   ice dynamic
!-----------------------------------------------------------------------
/
!-----------------------------------------------------------------------
&namicethd     !   ice thermodynamic
!-----------------------------------------------------------------------
/
!-----------------------------------------------------------------------
&namicesal     !   ice salinity
!-----------------------------------------------------------------------
/
!-----------------------------------------------------------------------
&namiceitdme   !   parameters for mechanical redistribution of ice 
!-----------------------------------------------------------------------
/
!-----------------------------------------------------------------------
&namicedia     !   ice diagnostics
!-----------------------------------------------------------------------
/
!------------------------------------------------------------------------------
&namiceitd     !   Ice discretization
!------------------------------------------------------------------------------
/
!------------------------------------------------------------------------------
&namicehdf     !   Ice horizontal diffusion
!------------------------------------------------------------------------------
/
