!!>>>>>>>>>>>>>>>>>>>>>>>>>>>>>>>>>>>>>>>>>>>>>>>>>>>>>>>>>>>>>>>>>>>>>>
!! NEMO/OPA  Configuration namelist : used to overwrite defaults values defined in SHARED/namelist_ref
!!>>>>>>>>>>>>>>>>>>>>>>>>>>>>>>>>>>>>>>>>>>>>>>>>>>>>>>>>>>>>>>>>>>>>>>
!
!-----------------------------------------------------------------------
&namusr_def    !   User defined :   VORTEX configuration: Flat bottom, beta-plane
!-----------------------------------------------------------------------
   rn_dx       =  30000.   !  x horizontal resolution   [meters]
   rn_dy       =  30000.   !  y horizontal resolution   [meters]
   rn_dz       =    500.   !  z vertical resolution [meters]
   rn_ppgphi0  =   38.5    !  Reference latitude [degrees]
/
!
!-----------------------------------------------------------------------
&namrun        !   parameters of the run
!-----------------------------------------------------------------------
   nn_no       =       0   !  job number (no more used...)
   cn_exp      = "VORTEX"  !  experience name
   nn_it000    =       1   !  first time step
   nn_itend    =   18000   !  last time step 
   nn_istate   =       0   !  output the initial state (1) or not (0)
   nn_stock    =   99999   !  frequency of creation of a restart file (modulo referenced to 1)
   nn_write    =   99999   !  frequency of write in the output file   (modulo referenced to nn_it000)
/
!-----------------------------------------------------------------------
&namcfg        !   parameters of the configuration                      (default: user defined GYRE)
!-----------------------------------------------------------------------
/
!-----------------------------------------------------------------------
&namdom        !   time and space domain
!-----------------------------------------------------------------------
   ln_linssh   =  .false.  !  =T  linear free surface  ==>>  model level are fixed in time
   rn_rdt      =    480.   !  time step for the dynamics (and tracer if nn_acc=0)
   rn_atfp     =   0.05    !  asselin time filter parameter
/
!-----------------------------------------------------------------------
&namtsd        !   data : Temperature  & Salinity
!-----------------------------------------------------------------------
/
!-----------------------------------------------------------------------
&namwad        !   Wetting and drying  default is no WAD
!-----------------------------------------------------------------------
/
!-----------------------------------------------------------------------
&namcrs        !   coarsened grid (for outputs and/or TOP)              (ln_crs =T)
!-----------------------------------------------------------------------
/
!-----------------------------------------------------------------------
&namc1d        !   1D configuration options                             ("key_c1d")
!-----------------------------------------------------------------------
/
!-----------------------------------------------------------------------
&namc1d_dyndmp !   U & V newtonian damping                              ("key_c1d")
!-----------------------------------------------------------------------
/
!-----------------------------------------------------------------------
&namc1d_uvd    !   data: U & V currents                                 ("key_c1d")
!-----------------------------------------------------------------------
/
!-----------------------------------------------------------------------
&namsbc        !   Surface Boundary Condition (surface module)
!-----------------------------------------------------------------------
  nn_fsbc     = 1         !  frequency of surface boundary condition computation
                          !     (also = the frequency of sea-ice & iceberg model call)
  ln_usr      = .true.    !  user defined formulation                  (T => check usrdef_sbc)
  ln_blk      = .false.   !  Bulk formulation                          (T => fill namsbc_blk )
  nn_ice      = 0         !  =0 no ice boundary condition   
  ln_traqsr   = .false.   !  Light penetration in the ocean            (T => fill namtra_qsr )
  ln_rnf      = .false.   !  runoffs                                   (T => fill namsbc_rnf)
  ln_ssr      = .false.   !  Sea Surface Restoring on T and/or S       (T => fill namsbc_ssr)
  nn_fwb      = 0         !  FreshWater Budget: =0 unchecked
/
!-----------------------------------------------------------------------
&namsbc_flx    !   surface boundary condition : flux formulation
!-----------------------------------------------------------------------
/
!-----------------------------------------------------------------------
&namsbc_blk   !   namsbc_blk  generic Bulk formula                      (ln_blk =T)
!-----------------------------------------------------------------------
/
!-----------------------------------------------------------------------
&namsbc_cpl    !   coupled ocean/atmosphere model                       ("key_oasis3")
!-----------------------------------------------------------------------
/
!-----------------------------------------------------------------------
&namsbc_sas    !   Stand-Alone Surface boundary condition
!-----------------------------------------------------------------------
/
!-----------------------------------------------------------------------
&namsbc_iif    !   Ice-IF : use observed ice cover                      (nn_ice = 1)
!-----------------------------------------------------------------------
/
!-----------------------------------------------------------------------
&namtra_qsr    !   penetrative solar radiation                          (ln_traqsr =T)
!-----------------------------------------------------------------------
/
!-----------------------------------------------------------------------
&namsbc_rnf    !   runoffs namelist surface boundary condition          (ln_rnf =T)
!-----------------------------------------------------------------------
/
!-----------------------------------------------------------------------
&namsbc_isf    !  Top boundary layer (ISF)                              (nn_isf >0)
!-----------------------------------------------------------------------
/
!-----------------------------------------------------------------------
&namsbc_iscpl  !   land ice / ocean coupling option                     
!-----------------------------------------------------------------------
/
!-----------------------------------------------------------------------
&namsbc_apr    !   Atmospheric pressure used as ocean forcing           (ln_apr_dyn =T)
!-----------------------------------------------------------------------
/
!-----------------------------------------------------------------------
&namsbc_ssr    !   surface boundary condition : sea surface restoring   (ln_ssr =T)
!-----------------------------------------------------------------------
/
!-----------------------------------------------------------------------
&namsbc_wave   ! External fields from wave model                        (ln_wave=T)
!-----------------------------------------------------------------------
/
!-----------------------------------------------------------------------
&namberg       !   iceberg parameters                                   (default: No iceberg)
!-----------------------------------------------------------------------
/
!-----------------------------------------------------------------------
&namlbc        !   lateral momentum boundary condition                  (default: NO selection)
!-----------------------------------------------------------------------
  rn_shlat     =    0.    !  free slip
/
!-----------------------------------------------------------------------
&namagrif      !  AGRIF zoom                                            ("key_agrif")
!-----------------------------------------------------------------------
   ln_spc_dyn    = .true.  !  use 0 as special value for dynamics
   rn_sponge_tra =  800.   !  coefficient for tracer   sponge layer [m2/s]
   rn_sponge_dyn =  800.   !  coefficient for dynamics sponge layer [m2/s]
   ln_chk_bathy  = .FALSE. !
/
!-----------------------------------------------------------------------
&nam_tide      !   tide parameters
!-----------------------------------------------------------------------
/
!-----------------------------------------------------------------------
&nambdy        !  unstructured open boundaries                          
!-----------------------------------------------------------------------
/
!-----------------------------------------------------------------------
&nambdy_dta    !  open boundaries - external data                       
!-----------------------------------------------------------------------
/
!-----------------------------------------------------------------------
&nambdy_tide   !  tidal forcing at open boundaries
!-----------------------------------------------------------------------
/
!-----------------------------------------------------------------------
&namdrg        !   top/bottom drag coefficient                          (default: NO selection)
!-----------------------------------------------------------------------
   ln_OFF     = .true.    !  free-slip       : Cd = 0
/
!-----------------------------------------------------------------------
&namdrg_top    !   TOP friction                                         (ln_isfcav=T)
!-----------------------------------------------------------------------
/
!-----------------------------------------------------------------------
&namdrg_bot    !   BOTTOM friction                                  
!-----------------------------------------------------------------------
/
!-----------------------------------------------------------------------
&nambbc        !   bottom temperature boundary condition                (default: OFF)
!-----------------------------------------------------------------------
/
!-----------------------------------------------------------------------
&nambbl        !   bottom boundary layer scheme                         (default: OFF)
!-----------------------------------------------------------------------
/
!-----------------------------------------------------------------------
&nameos        !   ocean Equation Of Seawater                           (default: OFF)
!-----------------------------------------------------------------------
   ln_seos     = .true.         !  = Use simplified equation of state (S-EOS)
      !                            !  rd(T,S,Z)*rau0 = -a0*(1+.5*lambda*dT+mu*Z+nu*dS)*dT+b0*dS
      rn_a0       =  0.28        !  thermal expension coefficient (for simplified equation of state)
      rn_b0       =  0.          !  saline  expension coefficient (for simplified equation of state)
      rn_lambda1  =  0.          !  cabbeling coeff in T^2  (=0 for linear eos)
      rn_lambda2  =  0.          !  cabbeling coeff in S^2  (=0 for linear eos)
      rn_mu1      =  0.          !  thermobaric coeff. in T (=0 for linear eos)
      rn_mu2      =  0.          !  thermobaric coeff. in S (=0 for linear eos)
      rn_nu       =  0.          !  cabbeling coeff in T*S  (=0 for linear eos)
/
!-----------------------------------------------------------------------
&namtra_adv    !   advection scheme for tracer                          (default: NO selection)
!-----------------------------------------------------------------------
   ln_traadv_cen = .false. !  2nd order centered scheme
      nn_cen_h   =  4            !  =2/4, horizontal 2nd order CEN / 4th order CEN
      nn_cen_v   =  4            !  =2/4, vertical   2nd order CEN / 4th order COMPACT
   ln_traadv_fct = .true.  !  FCT scheme
      nn_fct_h   =  2            !  =2/4, horizontal 2nd / 4th order
      nn_fct_v   =  2            !  =2/4, vertical   2nd / COMPACT 4th order
   ln_traadv_mus = .false. !  MUSCL scheme
      ln_mus_ups = .false.       !  use upstream scheme near river mouths
   ln_traadv_ubs = .false. !  UBS scheme
      nn_ubs_v   =  2            !  =2  , vertical 2nd order FCT / COMPACT 4th order
   ln_traadv_qck = .false. !  QUICKEST scheme
/
!-----------------------------------------------------------------------
&namtra_ldf    !   lateral diffusion scheme for tracers                 (default: NO selection)
!-----------------------------------------------------------------------
   !                       !  Operator type:
   ln_traldf_OFF   =  .true.  !  No explicit diffusion
   ln_traldf_lap   =  .false.  !    laplacian operator
   ln_traldf_blp   =  .false.  !  bilaplacian operator
/

!!======================================================================
!!                      ***  Dynamics namelists  ***                  !!
!!======================================================================
!
!-----------------------------------------------------------------------
&nam_vvl       !   vertical coordinate options                          (default: z-star)
!-----------------------------------------------------------------------
   ln_vvl_zstar  = .true.           !  zstar vertical coordinate
/
!-----------------------------------------------------------------------
&namdyn_adv    !   formulation of the momentum advection                (default: NO selection)
!-----------------------------------------------------------------------
   ln_dynadv_vec = .false. !  vector form (T) or flux form (F)
   nn_dynkeg     = 0       ! scheme for grad(KE): =0   C2  ;  =1   Hollingsworth correction
   ln_dynadv_cen2= .false. !  flux form - 2nd order centered scheme
   ln_dynadv_ubs = .true.  !  flux form - 3rd order UBS      scheme
/
!-----------------------------------------------------------------------
&namdyn_vor    !   Vorticity / Coriolis scheme                          (default: OFF)
!-----------------------------------------------------------------------
   ln_dynvor_ene = .false. !  enstrophy conserving scheme
   ln_dynvor_ens = .false. !  energy conserving scheme
   ln_dynvor_mix = .false. !  mixed scheme
   ln_dynvor_een = .true.  !  energy & enstrophy scheme
      nn_een_e3f = 0             !  e3f = masked averaging of e3t divided by 4 (=0) or by the sum of mask (=1)
/
!-----------------------------------------------------------------------
&namdyn_hpg    !   Hydrostatic pressure gradient option                 (default: NO selection)
!-----------------------------------------------------------------------
   ln_hpg_zps  = .false.  !  z-coordinate - partial steps (interpolation)
   ln_hpg_sco  = .true.   !  s-coordinate (standard jacobian formulation)
/
!-----------------------------------------------------------------------
&namdyn_spg    !   surface pressure gradient                            (default: OFF)
!-----------------------------------------------------------------------
   ln_dynspg_exp  = .false. 
   ln_dynspg_ts  = .true.   ! split-explicit free surface
      ln_bt_fw      = .true.     ! Forward integration of barotropic Eqs.
      ln_bt_av      = .true.     ! Time filtering of barotropic variables
         nn_bt_flt     = 1          ! Time filter choice  = 0 None
         !                          !                     = 1 Boxcar over   nn_baro sub-steps
         !                          !                     = 2 Boxcar over 2*nn_baro  "    "
      ln_bt_auto    = .false.    ! Number of sub-step defined from:
         nn_baro      =  24         ! =F : the number of sub-step in rn_rdt seconds
/
!-----------------------------------------------------------------------
&namdyn_ldf    !   lateral diffusion on momentum                        (default: NO selection)
!-----------------------------------------------------------------------
   !                       !  Type of the operator :
   ln_dynldf_OFF =  .true.     !  No operator (i.e. no explicit diffusion)
   ln_dynldf_lap =  .false.    !    laplacian operator
   ln_dynldf_blp =  .false.    !  bilaplacian operator
   !                       !  Direction of action  :
   ln_dynldf_lev =  .false.    !  iso-level
   ln_dynldf_hor =  .true.     !  horizontal (geopotential)
   ln_dynldf_iso =  .false.    !  iso-neutral
   !                       !  Coefficient
   nn_ahm_ijk_t  = 0           !  space/time variation of eddy coef
      !                             !  =  0  constant 
      !                        !  time invariant coefficients :  ahm = 1/2  Uv*Lv   (lap case) 
      !                             !                            bhm = 1/12 Uv*Lv^3 (blp case)
      rn_Uv      = 0.1              !  lateral viscous velocity [m/s] (nn_ahm_ijk_t= 0, 10, 20, 30)
      rn_Lv      = 30.e+3           !  lateral viscous length   [m]   (nn_ahm_ijk_t= 0, 10)
/

!-----------------------------------------------------------------------
&namzdf        !   vertical physics                                     (default: NO selection)
!-----------------------------------------------------------------------
   !                       ! type of vertical closure
   ln_zdfcst   = .true.       !  constant mixing
   !
   !                       ! convection
   ln_zdfevd   = .false.      !  enhanced vertical diffusion
   ln_zdfnpc   = .false.      !  Non-Penetrative Convective algorithm
   !
   !                       ! coefficients
   rn_avm0     =   1.e-4      !  vertical eddy viscosity   [m2/s]       (background Kz if ln_zdfcst=F)
   rn_avt0     =   0.e0       !  vertical eddy diffusivity [m2/s]       (background Kz if ln_zdfcst=F)
   nn_avb      =    0         !  profile for background avt & avm (=1) or not (=0)
   nn_havtb    =    0         !  horizontal shape for avtb (=1) or not (=0)
/

