!!>>>>>>>>>>>>>>>>>>>>>>>>>>>>>>>>>>>>>>>>>>>>>>>>>>>>>>>>>>>>>>>>>>>>>>
!! NEMO/OPA  Configuration namelist : used to overwrite defaults values defined in SHARED/namelist_ref
!!>>>>>>>>>>>>>>>>>>>>>>>>>>>>>>>>>>>>>>>>>>>>>>>>>>>>>>>>>>>>>>>>>>>>>>
!
!-----------------------------------------------------------------------
&namrun        !   parameters of the run
!-----------------------------------------------------------------------
   cn_exp      =  "O2LP_trust"         !  experience name
   nn_itend    =     150               !  last  time step (std 5475)
   nn_euler    =       0               !  = 0 : start with forward time step if ln_rstart=T
   nn_stock    =      75               !  frequency of creation of a restart file (modulo referenced to 1)
/
!-----------------------------------------------------------------------
&namcfg        !   parameters of the configuration
!-----------------------------------------------------------------------
   cp_cfg      =  "orca"               !  name of the configuration
   jp_cfg      =       2               !  resolution of the configuration
   jpidta      =     182               !  1st lateral dimension ( >= jpi )
   jpjdta      =     149               !  2nd    "         "    ( >= jpj )
   jpkdta      =      31               !  number of levels      ( >= jpk )
   jpiglo      =     182               !  1st dimension of global domain --> i =jpidta
   jpjglo      =     149               !  2nd    -                  -    --> j  =jpjdta
   jpizoom     =       1               !  left bottom (i,j) indices of the zoom
   jpjzoom     =       1               !  in data domain indices
   jperio      =       4               !  lateral cond. type (between 0 and 6)
/
!-----------------------------------------------------------------------
&namzgr        !   vertical coordinate
!-----------------------------------------------------------------------
/
!-----------------------------------------------------------------------
&namdom        !   space and time domain (bathymetry, mesh, timestep)
!-----------------------------------------------------------------------
   nn_msh      =       0               !  create (=1) a mesh file or not (=0)
   jphgr_msh   =       0               !  type of horizontal mesh
   ppglam0     =  999999.0             !  longitude of first raw and column T-point (jphgr_msh = 1)
   ppgphi0     =  999999.0             ! latitude  of first raw and column T-point (jphgr_msh = 1)
   ppe1_deg    =  999999.0             !  zonal      grid-spacing (degrees)
   ppe2_deg    =  999999.0             !  meridional grid-spacing (degrees)
   ppe1_m      =  999999.0             !  zonal      grid-spacing (degrees)
   ppe2_m      =  999999.0             !  meridional grid-spacing (degrees)
   ppsur       =   -4762.96143546300   !  ORCA r4, r2 and r05 coefficients
   ppa0        =     255.58049070440   ! (default coefficients)
   ppa1        =     245.58132232490   !
   ppkth       =      21.43336197938   !
   ppacr       =       3.0             !
   ppdzmin     =  999999.              !  Minimum vertical spacing
   pphmax      =  999999.              !  Maximum depth
   ldbletanh   =  .FALSE.              !  Use/do not use double tanf function for vertical coordinates
   ppa2        =  999999.              !  Double tanh function parameters
   ppkth2      =  999999.              !
   ppacr2      =  999999.              !
/
!-----------------------------------------------------------------------
&namsplit      !   time splitting parameters                            ("key_dynspg_ts")
!-----------------------------------------------------------------------
/
!-----------------------------------------------------------------------
&namcrs        !   Grid coarsening for dynamics output and/or
               !   passive tracer coarsened online simulations
!-----------------------------------------------------------------------
/
!-----------------------------------------------------------------------
&namtsd    !   data : Temperature  & Salinity
!-----------------------------------------------------------------------
/
!-----------------------------------------------------------------------
&namsbc        !   Surface Boundary Condition (surface module)
!-----------------------------------------------------------------------
   nn_fwb      =       0               !  FreshWater Budget: =0 unchecked
/
!-----------------------------------------------------------------------
&namsbc_core   !   namsbc_core  CORE bulk formulae
!-----------------------------------------------------------------------
/
!-----------------------------------------------------------------------
&namtra_qsr    !   penetrative solar radiation
!-----------------------------------------------------------------------
/
!-----------------------------------------------------------------------
&namsbc_rnf    !   runoffs namelist surface boundary condition
!-----------------------------------------------------------------------
/
!-----------------------------------------------------------------------
&namsbc_ssr    !   surface boundary condition : sea surface restoring
!-----------------------------------------------------------------------
/
!-----------------------------------------------------------------------
&namsbc_alb    !   albedo parameters
!-----------------------------------------------------------------------
/
!-----------------------------------------------------------------------
&namberg       !   iceberg parameters
!-----------------------------------------------------------------------
/
!-----------------------------------------------------------------------
&namlbc        !   lateral momentum boundary condition
!-----------------------------------------------------------------------
/
!-----------------------------------------------------------------------
&namcla        !   cross land advection
!-----------------------------------------------------------------------
/
!-----------------------------------------------------------------------
&nambfr        !   bottom friction
!-----------------------------------------------------------------------
/
!-----------------------------------------------------------------------
&nambbc        !   bottom temperature boundary condition
!-----------------------------------------------------------------------
/
!-----------------------------------------------------------------------
&nambbl        !   bottom boundary layer scheme
!-----------------------------------------------------------------------
/
!-----------------------------------------------------------------------
&nameos        !   ocean physical parameters
!-----------------------------------------------------------------------
/
!-----------------------------------------------------------------------
&namtra_adv    !   advection scheme for tracer
!-----------------------------------------------------------------------
/
!-----------------------------------------------------------------------
&namtra_adv_mle !  mixed layer eddy parametrisation (Fox-Kemper param)
!-----------------------------------------------------------------------
/
!-----------------------------------------------------------------------
&namtra_adv_mle !  mixed layer eddy parametrisation (Fox-Kemper param)
!-----------------------------------------------------------------------
/
!----------------------------------------------------------------------------------
&namtra_ldf    !   lateral diffusion scheme for tracers
!----------------------------------------------------------------------------------
/
!-----------------------------------------------------------------------
&namtra_dmp    !   tracer: T & S newtonian damping
!-----------------------------------------------------------------------
/
!-----------------------------------------------------------------------
&namdyn_adv    !   formulation of the momentum advection
!-----------------------------------------------------------------------
/
!-----------------------------------------------------------------------
&namdyn_vor    !   option of physics/algorithm (not control by CPP keys)
!-----------------------------------------------------------------------
/
!-----------------------------------------------------------------------
&namdyn_hpg    !   Hydrostatic pressure gradient option
!-----------------------------------------------------------------------
/
!-----------------------------------------------------------------------
&namdyn_ldf    !   lateral diffusion on momentum
!-----------------------------------------------------------------------
/
!-----------------------------------------------------------------------
&namzdf        !   vertical physics
!-----------------------------------------------------------------------
/
!-----------------------------------------------------------------------
&namzdf_tke    !   turbulent eddy kinetic dependent vertical diffusion  ("key_zdftke")
!-----------------------------------------------------------------------
/
!-----------------------------------------------------------------------
&namzdf_ddm    !   double diffusive mixing parameterization             ("key_zdfddm")
!-----------------------------------------------------------------------
/
!-----------------------------------------------------------------------
&namzdf_tmx    !   tidal mixing parameterization                        ("key_zdftmx")
!-----------------------------------------------------------------------
/
!-----------------------------------------------------------------------
&namsol        !   elliptic solver / island / free surface
!-----------------------------------------------------------------------
   nn_solv     =       2               !  elliptic solver: =2 successive-over-relaxation (sor)
/
!-----------------------------------------------------------------------
&nammpp        !   Massively Parallel Processing                        ("key_mpp_mpi)
!-----------------------------------------------------------------------
/
!-----------------------------------------------------------------------
&namctl        !   Control prints & Benchmark
!-----------------------------------------------------------------------
/
!-----------------------------------------------------------------------
&namptr       !   Poleward Transport Diagnostic
!-----------------------------------------------------------------------
/
!-----------------------------------------------------------------------
&namhsb       !  Heat and salt budgets
!-----------------------------------------------------------------------
/
!-----------------------------------------------------------------------
&namdyn_nept  !   Neptune effect (simplified: lateral and vertical diffusions removed)
!-----------------------------------------------------------------------
/
!-----------------------------------------------------------------------
&namsto       ! Stochastic parametrization of EOS
!-----------------------------------------------------------------------
/
!-----------------------------------------------------------------------
&namtrd        !   diagnostics on dynamics and/or tracer trends
!              !       and/or mixed-layer trends and/or barotropic vorticity
!-----------------------------------------------------------------------
/
