!!>>>>>>>>>>>>>>>>>>>>>>>>>>>>>>>>>>>>>>>>>>>>>>>>>>>>>>>>>>>>>>>>>>>>>>
!! NEMO/OPA  Configuration namelist : used to overwrite defaults values defined in SHARED/namelist_ref
!!>>>>>>>>>>>>>>>>>>>>>>>>>>>>>>>>>>>>>>>>>>>>>>>>>>>>>>>>>>>>>>>>>>>>>>
!-----------------------------------------------------------------------
&namusr_def    !   SAS_BIPER user defined namelist
!-----------------------------------------------------------------------
   rn_dx       =    1000.   ! horizontal resolution in meters
   rn_dy       =    1000.   ! horizontal resolution in meters
/
!-----------------------------------------------------------------------
&namrun        !   parameters of the run
!-----------------------------------------------------------------------
   nn_no       =       0      !  job number (no more used...)
   cn_exp      =  "SASBIPER"  !  experience name
   nn_it000    =       1      !  first time step
   nn_itend    =    1500      !  last  time step (std 5475)
   nn_istate   =       1      !  output the initial state (1) or not (0)
/

!!======================================================================
!!                      ***  Domain namelists  ***
!!======================================================================
!-----------------------------------------------------------------------
&namcfg        !   parameters of the configuration                      (default: user defined GYRE)
!-----------------------------------------------------------------------
   ln_read_cfg = .false.    !  (=T) read the domain configuration file
      !                     !  (=F) user defined configuration  ==>>>  see usrdef(_...) modules
      cn_domcfg = "SASBIPER_domcfg"    ! domain configuration filename
/
!-----------------------------------------------------------------------
&namdom        !   time and space domain
!-----------------------------------------------------------------------
   ln_linssh   = .true.   !  =T  linear free surface  ==>>  model level are fixed in time
   !
   rn_rdt      = 400.     !  time step for the dynamics (and tracer if nn_acc=0)
   !
   ln_meshmask = .true.   !  =T  create a mesh file
/

!!======================================================================
!!            ***  Surface Boundary Condition namelists  ***
!!======================================================================
!
!-----------------------------------------------------------------------
&namsbc        !   Surface Boundary Condition (surface module)          (default: NO selection)
!-----------------------------------------------------------------------
   ln_usr      = .true.   !  user defined formulation                   (T => check usrdef_sbc)
   ln_blk      = .false.  !  Bulk formulation                           (T => fill namsbc_blk )
   nn_fsbc     =  1       !  frequency of surface boundary condition computation
   nn_ice      =  2       !  sea-ice model
/
!-----------------------------------------------------------------------
&namsbc_flx    !   surface boundary condition : flux formulation        (ln_flx=T)
!-----------------------------------------------------------------------
/
!-----------------------------------------------------------------------
&namsbc_blk   !   namsbc_blk  generic Bulk formula                      (ln_blk =T)
!-----------------------------------------------------------------------
/
!-----------------------------------------------------------------------
&namsbc_cpl    !   coupled ocean/atmosphere model                       ("key_oasis3")
!-----------------------------------------------------------------------
/
!-----------------------------------------------------------------------
&namsbc_sas    !   Stand-Alone Surface boundary condition
!-----------------------------------------------------------------------
   l_sasread   = .false.  !  =T Read in file ;  =F set all to 0. (see sbcssm.F90)
/
!-----------------------------------------------------------------------
&namsbc_iif    !   Ice-IF : use observed ice cover                      (nn_ice = 1)
!-----------------------------------------------------------------------
/
!-----------------------------------------------------------------------
&namtra_qsr    !   penetrative solar radiation                          (ln_traqsr =T)
!-----------------------------------------------------------------------
/
!-----------------------------------------------------------------------
&namsbc_rnf    !   runoffs namelist surface boundary condition          (ln_rnf =T)
!-----------------------------------------------------------------------
/
!-----------------------------------------------------------------------
&namsbc_isf    !  Top boundary layer (ISF)                              (nn_isf >0)
!-----------------------------------------------------------------------
/
!-----------------------------------------------------------------------
&namsbc_iscpl  !   land ice / ocean coupling option                     
!-----------------------------------------------------------------------
/
!-----------------------------------------------------------------------
&namsbc_apr    !   Atmospheric pressure used as ocean forcing           (ln_apr_dyn =T)
!-----------------------------------------------------------------------
/
!-----------------------------------------------------------------------
&namsbc_ssr    !   surface boundary condition : sea surface restoring   (ln_ssr =T)
!-----------------------------------------------------------------------
/
!-----------------------------------------------------------------------
&namsbc_wave   ! External fields from wave model                        (ln_wave=T)
!-----------------------------------------------------------------------
/
!-----------------------------------------------------------------------
&namberg       !   iceberg parameters                                   (default: No iceberg)
!-----------------------------------------------------------------------
   ln_bergdia               = .false.               ! Calculate budgets
/

!!======================================================================
!!               ***  Lateral boundary condition  ***                 !!
!!======================================================================
!
!-----------------------------------------------------------------------
&namlbc        !   lateral momentum boundary condition                  (default: NO selection)
!-----------------------------------------------------------------------
   rn_shlat    =    0.     !  free slip
/
!-----------------------------------------------------------------------
&namagrif      !  AGRIF zoom                                            ("key_agrif")
!-----------------------------------------------------------------------
/
!-----------------------------------------------------------------------
&nambdy        !  unstructured open boundaries                          
!-----------------------------------------------------------------------
/
!-----------------------------------------------------------------------
&nambdy_dta    !  open boundaries - external data                       
!-----------------------------------------------------------------------
/
!!======================================================================
!!                        Tracer (T & S) namelists
!!======================================================================
!-----------------------------------------------------------------------
&nameos        !   ocean Equation Of Seawater                           (default: NO selection)
!-----------------------------------------------------------------------
   ln_teos10    = .true.         !  = Use TEOS-10 equation of state
/

!!======================================================================
!!                      ***  Dynamics namelists  ***                  !!
!!======================================================================
!
!-----------------------------------------------------------------------
&nam_vvl       !   vertical coordinate options                          (default: z-star)
!-----------------------------------------------------------------------
/
!-----------------------------------------------------------------------
&namdyn_adv    !   formulation of the momentum advection                (default: NO selection)
!-----------------------------------------------------------------------
   ln_dynadv_OFF = .true. !  linear dynamics (no momentum advection)
/
!-----------------------------------------------------------------------
&namdyn_vor    !   Vorticity / Coriolis scheme                          (default: NO selection)
!-----------------------------------------------------------------------
/
!-----------------------------------------------------------------------
&namdyn_hpg    !   Hydrostatic pressure gradient option
!-----------------------------------------------------------------------
   ln_hpg_zco  = .true.   !  z-coordinate - full steps
/
!-----------------------------------------------------------------------
&namdyn_spg    !   surface pressure gradient
!-----------------------------------------------------------------------
   ln_dynspg_ts  = .true.  !  split-explicit free surface
/
!-----------------------------------------------------------------------
&namdyn_ldf    !   lateral diffusion on momentum                        (default: NO selection)
!-----------------------------------------------------------------------
   ln_dynldf_OFF = .true.     !  No operator (i.e. no explicit diffusion)
/
!-----------------------------------------------------------------------
&namzdf        !   vertical physics                                     (default: NO selection)
!-----------------------------------------------------------------------
   !                       ! type of vertical closure
   ln_zdfcst   = .true.       !  constant mixing
/
