!-----------------------------------------------------------------------
&nam_diatmb    !  Top Middle Bottom Output                               (default F)
!-----------------------------------------------------------------------
   ln_diatmb   = .false.   !  Choose Top Middle and Bottom output or not
/
